<?xml version="1.0" encoding="UTF-8"?>

<!-- generated on 2022-07-06 09:55:35 by Eclipse SUMO polyconvert Version 1.11.0
<configuration xmlns:xsi="http://www.w3.org/2001/XMLSchema-instance" xsi:noNamespaceSchemaLocation="http://sumo.dlr.de/xsd/polyconvertConfiguration.xsd">

    <input>
        <net-file value="bari.net.xml"/>
        <osm-files value="bari.osm.xml"/>
    </input>

    <output>
        <output-file value="bari.poly.xml"/>
    </output>

    <processing>
        <poi-layer-offset value="5"/>
    </processing>

</configuration>
-->

<additional xmlns:xsi="http://www.w3.org/2001/XMLSchema-instance" xsi:noNamespaceSchemaLocation="http://sumo.dlr.de/xsd/additional_file.xsd">
    <location netOffset="-655422.16,-4553495.26" convBoundary="-305.10,-0.00,1880.13,1238.35" origBoundary="16.847867,41.117817,16.873978,41.128684" projParameter="+proj=utm +zone=33 +ellps=WGS84 +datum=WGS84 +units=m +no_defs"/>

    <poly id="1011214731" type="man_made" color="255,230,230" fill="1" layer="-1.00" shape="349.251387,980.385000 358.381525,952.356602 395.987598,955.224029 396.924459,942.793014 398.117924,942.751812 399.257470,942.876066 397.578779,963.710400 349.251387,980.385000"/>
    <poly id="1011214732" type="residential" color="235,235,227" fill="1" layer="-3.00" shape="349.251387,980.385000 358.381525,952.356602 359.207070,939.234577 374.762286,940.754543 377.915847,940.955040 399.257470,942.876066 397.578779,963.710400 349.251387,980.385000"/>
    <poly id="1011214733" type="building" color="255,230,230" fill="1" layer="-1.00" shape="377.118652,953.533424 395.987598,955.224029 396.924459,942.793014 387.042275,941.871520 377.915847,940.955040 377.118652,953.533424"/>
    <poly id="1011215064" type="building" color="255,230,230" fill="1" layer="-1.00" shape="708.961314,628.657169 726.512809,630.331557 727.674293,618.027537 721.008990,617.474214 721.621002,609.268067 724.287079,609.491616 725.476405,598.243361 711.715004,597.249703 711.622280,597.658684 710.450287,597.478155 710.312503,608.648905 710.181972,619.086746 709.293422,618.612380 708.961314,628.657169"/>
    <poly id="1011215065" type="building" color="255,230,230" fill="1" layer="-1.00" shape="799.424620,561.103977 804.153399,561.882557 805.088936,553.083545 799.797769,552.681695 799.424620,561.103977"/>
    <poly id="1011215065#1" type="shop" color="237,199,255" fill="1" layer="-1.00" shape="799.424620,561.103977 804.153399,561.882557 805.088936,553.083545 799.797769,552.681695 799.424620,561.103977"/>
    <poly id="1011215066" type="man_made" color="255,230,230" fill="1" layer="-1.00" shape="721.008990,617.474214 727.674293,618.027537 728.432919,610.035556 721.621002,609.268067 721.008990,617.474214"/>
    <poly id="1013289860" type="parking" color="184,184,179" fill="1" layer="-1.00" shape="1570.763074,144.138825 1571.869831,129.756672 1603.772050,133.629464 1602.228322,136.284232 1602.251755,137.539839 1601.516718,138.912442 1599.688358,142.305274 1596.241259,145.196846 1593.378450,145.912866 1581.492905,145.924211 1579.221532,144.131623 1576.353353,142.359543 1574.093786,142.755310 1570.763074,144.138825"/>
    <poly id="1040774296" type="parking" color="184,184,179" fill="0" layer="-1.00" shape="206.947221,849.856424 203.569731,887.392883"/>
    <poly id="1040774297" type="landuse" color="194,194,130" fill="1" layer="-3.00" shape="206.947221,849.856424 285.378132,855.147495 284.103770,889.740945 203.569731,887.392883 206.947221,849.856424"/>
    <poly id="1050478906" type="amenity" color="237,199,199" fill="1" layer="-1.00" shape="1425.815252,503.841443 1434.585397,504.162888 1435.282636,497.502478 1441.023124,498.103249 1443.316661,489.855452 1427.259734,488.189204 1425.815252,503.841443"/>
    <poly id="1050478906#1" type="building" color="255,230,230" fill="1" layer="-1.00" shape="1425.815252,503.841443 1434.585397,504.162888 1435.282636,497.502478 1441.023124,498.103249 1443.316661,489.855452 1427.259734,488.189204 1425.815252,503.841443"/>
    <poly id="1050478907" type="building" color="255,230,230" fill="1" layer="-1.00" shape="1466.169407,478.561182 1447.924871,476.681339 1448.741179,462.515083 1467.457553,464.327302 1466.169407,478.561182"/>
    <poly id="1050479545" type="amenity" color="237,199,199" fill="1" layer="-1.00" shape="1527.449569,128.358761 1527.556403,127.294773 1530.617719,127.504877 1530.425021,128.655880 1527.449569,128.358761"/>
    <poly id="1050479545#1" type="building" color="255,230,230" fill="1" layer="-1.00" shape="1527.449569,128.358761 1527.556403,127.294773 1530.617719,127.504877 1530.425021,128.655880 1527.449569,128.358761"/>
    <poly id="1057971689" type="landuse" color="194,194,130" fill="1" layer="-3.00" shape="447.685718,644.973810 451.259543,638.074793 442.291374,633.263058 438.087314,641.359309 437.912771,642.455184 438.230095,644.116897 438.862421,645.185546 443.595037,647.752208 445.541105,643.928452 447.685718,644.973810"/>
    <poly id="1057971690" type="landuse" color="194,194,130" fill="1" layer="-3.00" shape="452.230436,614.204268 463.167183,620.046516 466.980120,612.963784 463.284798,610.985685 465.305019,607.230157 458.063820,603.354899 452.230436,614.204268"/>
    <poly id="1057971692" type="leisure" color="207,245,201" fill="1" layer="-2.00" shape="465.186112,621.078092 468.890151,613.981932 475.069897,617.612425 474.379766,625.950198 465.186112,621.078092"/>
    <poly id="1057971695" type="parking" color="184,184,179" fill="1" layer="-1.00" shape="168.749328,170.716073 172.104843,138.943703 223.562116,144.348414 220.942243,169.172338 211.304595,168.156377 210.568738,175.104806 168.749328,170.716073"/>
    <poly id="1057971696" type="leisure" color="207,245,201" fill="1" layer="-2.00" shape="316.084576,178.117911 331.371348,179.698628 333.560937,158.530873 318.273885,156.961255 316.084576,178.117911"/>
    <poly id="1057971696#1" type="sport" color="79,230,125" fill="1" layer="-2.00" shape="316.084576,178.117911 331.371348,179.698628 333.560937,158.530873 318.273885,156.961255 316.084576,178.117911"/>
    <poly id="1057971698" type="parking" color="184,184,179" fill="1" layer="-1.00" shape="971.386652,85.521842 973.471055,83.889260 1001.145956,87.102523 1002.935601,89.040117 999.695859,117.193856 996.194316,116.752415 996.459390,114.569994 990.620208,113.856407 990.308407,116.259970 978.326613,114.881855 976.908458,126.991539 965.716413,119.321527 966.832967,114.636014 968.680469,113.475967 971.386652,85.521842"/>
    <poly id="1064529143" type="amenity" color="237,199,199" fill="1" layer="-1.00" shape="1654.808857,583.553186 1654.978960,581.890772 1645.332139,580.939332 1645.170195,582.613028 1654.808857,583.553186"/>
    <poly id="1064529263" type="amenity" color="237,199,199" fill="1" layer="-1.00" shape="1618.532562,506.179168 1631.185736,507.550577 1631.374771,505.788606 1618.721832,504.406095 1618.532562,506.179168"/>
    <poly id="1064892718" type="amenity" color="237,199,199" fill="1" layer="-1.00" shape="1682.133580,571.700351 1683.903287,571.816131 1684.274430,566.270545 1682.496327,566.154584 1682.133580,571.700351"/>
    <poly id="124954694" type="amenity" color="237,199,199" fill="1" layer="-1.00" shape="1670.643614,1056.335071 1690.602851,1056.908437 1691.422050,1044.974770 1689.519815,1044.778384 1671.249053,1044.185773 1670.919501,1050.531970 1670.643614,1056.335071"/>
    <poly id="128055187" type="amenity" color="237,199,199" fill="1" layer="-1.00" shape="1327.290862,906.271135 1298.451882,903.442481 1304.148061,846.551858 1368.379769,852.883010 1381.345116,854.160747 1375.606363,911.050427 1362.096410,909.716586 1348.033352,908.326479 1353.727028,857.444765 1328.405825,855.057980 1325.010480,893.549033 1328.482168,894.189939 1327.290862,906.271135"/>
    <poly id="128055187#1" type="building" color="255,230,230" fill="1" layer="-1.00" shape="1327.290862,906.271135 1298.451882,903.442481 1304.148061,846.551858 1368.379769,852.883010 1381.345116,854.160747 1375.606363,911.050427 1362.096410,909.716586 1348.033352,908.326479 1353.727028,857.444765 1328.405825,855.057980 1325.010480,893.549033 1328.482168,894.189939 1327.290862,906.271135"/>
    <poly id="134796063" type="university" color="237,199,199" fill="1" layer="-2.00" shape="1322.353279,390.329435 1322.884588,387.486303 1324.052884,385.489859 1325.559375,383.389596 1326.435219,382.497592 1327.406744,381.452140 1328.933380,380.762909 1331.317770,380.025427 1332.959388,379.849589 1334.952960,380.103367 1335.273851,376.889190 1336.080044,376.895368 1336.876412,366.782774 1335.711359,366.668938 1336.188174,362.058610 1316.481990,359.781238 1312.182425,355.823798 1310.993267,356.442517 1309.777258,357.138410 1308.610907,357.868689 1307.562091,358.601488 1306.682374,359.282377 1305.937696,359.932839 1305.277211,360.573999 1304.364692,361.609611 1304.061334,362.047392 1303.746726,362.618217 1303.419438,363.388697 1303.078043,364.425446 1302.729747,365.784152 1302.356330,367.531067 1301.956604,369.721703 1305.682548,370.268071 1304.332969,388.165986 1309.160597,388.647116 1309.059812,389.822307 1319.527271,390.901953 1319.706062,390.006112 1322.353279,390.329435"/>
    <poly id="134796063#1" type="building" color="255,230,230" fill="1" layer="-1.00" shape="1322.353279,390.329435 1322.884588,387.486303 1324.052884,385.489859 1325.559375,383.389596 1326.435219,382.497592 1327.406744,381.452140 1328.933380,380.762909 1331.317770,380.025427 1332.959388,379.849589 1334.952960,380.103367 1335.273851,376.889190 1336.080044,376.895368 1336.876412,366.782774 1335.711359,366.668938 1336.188174,362.058610 1316.481990,359.781238 1312.182425,355.823798 1310.993267,356.442517 1309.777258,357.138410 1308.610907,357.868689 1307.562091,358.601488 1306.682374,359.282377 1305.937696,359.932839 1305.277211,360.573999 1304.364692,361.609611 1304.061334,362.047392 1303.746726,362.618217 1303.419438,363.388697 1303.078043,364.425446 1302.729747,365.784152 1302.356330,367.531067 1301.956604,369.721703 1305.682548,370.268071 1304.332969,388.165986 1309.160597,388.647116 1309.059812,389.822307 1319.527271,390.901953 1319.706062,390.006112 1322.353279,390.329435"/>
    <poly id="189647759" type="tourism" color="207,245,201" fill="1" layer="-2.00" shape="1572.829451,167.996831 1628.197508,172.751270 1633.831724,173.227719 1635.446254,172.751472 1636.540446,171.864193 1637.270051,171.135688 1637.660156,169.789000 1640.848118,141.423273 1640.140732,139.553191 1639.096853,138.097950 1637.363388,137.072181 1611.671503,134.621041 1604.554804,133.946166 1603.627518,134.492715 1603.039260,135.679649 1602.409415,138.020830 1601.781138,139.506797 1601.124523,140.747800 1599.694182,142.816326 1597.494303,144.735042 1596.088520,145.660064 1593.755828,146.331933 1581.129032,146.049683 1579.586939,144.717039 1578.176845,143.887049 1576.713039,143.211406 1574.715883,143.512843 1573.268787,144.014913 1572.367222,144.928552 1572.168849,146.734751 1570.458423,165.369072 1570.886995,166.533414 1571.754232,167.218461 1572.829451,167.996831"/>
    <poly id="189647760" type="tourism" color="207,245,201" fill="1" layer="-2.00" shape="1510.887944,162.302012 1558.819934,166.785253 1560.593262,166.345721 1561.758000,165.693195 1562.677439,163.946905 1564.373729,145.578850 1563.475423,143.993461 1561.394867,143.093544 1543.744270,142.070396 1539.899219,139.633147 1536.114114,133.620699 1536.179652,130.567653 1535.985143,129.064018 1535.012037,127.832455 1533.515778,126.711840 1532.176287,126.505373 1530.543662,126.259292 1517.981267,125.323217 1513.030213,125.105879 1512.148066,125.897763 1510.991007,126.583784 1510.007691,127.784460 1507.580452,159.865211 1508.454002,161.039098 1509.413119,161.748324 1510.887944,162.302012"/>
    <poly id="202393989" type="university" color="237,199,199" fill="1" layer="-2.00" shape="1211.532977,299.430947 1257.213457,303.897337 1259.850088,269.832871 1235.222222,267.528014 1214.845148,265.580875 1211.532977,299.430947"/>
    <poly id="202393990" type="university" color="237,199,199" fill="1" layer="-2.00" shape="1210.884124,300.705468 1214.045723,263.297904 1288.034911,270.381380 1291.600161,234.537475 1306.808765,236.229639 1351.641968,241.056080 1344.014618,312.777639 1293.171500,308.177828 1288.233964,307.727677 1210.884124,300.705468"/>
    <poly id="202394213" type="college" color="237,199,199" fill="1" layer="-2.00" shape="1267.585431,300.032203 1269.731877,278.652633 1292.093399,280.886817 1293.812484,263.774320 1290.543716,263.448794 1290.908611,258.180749 1293.291193,235.584465 1349.649373,241.146641 1342.974418,307.623859 1342.558921,311.724575 1340.321148,311.498881 1326.475212,310.113530 1326.891890,305.957304 1297.213602,302.988602 1267.585431,300.032203"/>
    <poly id="202396373" type="parking" color="184,184,179" fill="1" layer="-1.00" shape="1356.152012,245.384588 1397.523626,249.081916 1387.190375,358.831649 1382.499314,401.326755 1365.141621,399.599435 1341.191249,396.664514 1356.152012,245.384588"/>
    <poly id="202429366" type="school" color="237,199,199" fill="1" layer="-2.00" shape="1277.629478,198.206658 1287.693861,195.767766 1321.454115,189.360674 1319.932594,180.797812 1318.565845,181.079512 1314.965200,159.010291 1309.090792,123.108441 1299.036474,121.937720 1310.564509,181.707701 1286.782225,185.396423 1271.438359,142.194232 1259.029666,146.237868 1277.629478,198.206658"/>
    <poly id="202429367" type="leisure" color="207,245,201" fill="1" layer="-2.00" shape="1285.118076,174.864560 1306.948169,168.990317 1300.606685,139.987070 1275.030229,146.258651 1285.118076,174.864560"/>
    <poly id="202430405" type="university" color="237,199,199" fill="1" layer="-2.00" shape="1253.507105,117.030080 1255.287022,99.818921 1340.322229,108.516824 1338.544730,125.605846 1309.736715,122.755752 1298.690995,121.597103 1253.507105,117.030080"/>
    <poly id="202430405#1" type="building" color="255,230,230" fill="1" layer="-1.00" shape="1253.507105,117.030080 1255.287022,99.818921 1340.322229,108.516824 1338.544730,125.605846 1309.736715,122.755752 1298.690995,121.597103 1253.507105,117.030080"/>
    <poly id="202433305" type="building" color="255,230,230" fill="1" layer="-1.00" shape="1316.481990,359.781238 1336.188174,362.058610 1337.942778,344.469273 1339.635307,328.600206 1339.972753,325.397491 1339.531476,324.432820 1339.201134,324.170274 1338.252451,324.149933 1332.485510,323.992967 1332.577731,323.217448 1319.771421,321.921040 1319.575601,322.827624 1319.322923,332.263234 1316.481990,359.781238"/>
    <poly id="202438731" type="building" color="255,230,230" fill="1" layer="-1.00" shape="1635.306135,329.425405 1635.869475,322.751024 1641.251949,323.210969 1640.865574,327.512230 1640.612330,329.917033 1635.306135,329.425405"/>
    <poly id="24884026" type="tourism" color="207,245,201" fill="1" layer="-2.00" shape="786.330719,906.986792 789.383120,867.510879 794.388284,825.477645 797.377227,825.130557 799.221737,823.315096 800.400829,821.196630 873.962718,827.578417 947.801069,833.989078 948.270810,836.764787 949.470331,838.012224 951.572846,839.056836 947.987459,871.212868 945.565974,872.516133 945.004317,880.712246 944.526027,886.188909 946.844833,889.292956 943.009176,925.297792 940.515635,926.044163 938.365970,927.597600 937.030285,929.968158 862.387137,921.963147 792.017345,914.416760 791.001475,910.863005 789.281103,908.049476 786.330719,906.986792"/>
    <poly id="24909794" type="university" color="237,199,199" fill="1" layer="-2.00" shape="1388.654481,391.995522 1401.561416,255.455137 1444.325960,259.604680 1486.012452,263.498090 1479.728210,331.671912 1473.422961,400.045218 1431.008283,396.069575 1388.654481,391.995522"/>
    <poly id="24909794#1" type="building" color="255,230,230" fill="1" layer="-1.00" shape="1388.654481,391.995522 1401.561416,255.455137 1444.325960,259.604680 1486.012452,263.498090 1479.728210,331.671912 1473.422961,400.045218 1431.008283,396.069575 1388.654481,391.995522"/>
    <poly id="262598933" type="tourism" color="207,245,201" fill="1" layer="-2.00" shape="1534.011187,116.937116 1537.591609,117.225010 1539.970267,90.152525 1539.914378,88.451938 1539.263217,87.482749 1538.049307,86.512587 1512.062369,83.711153 1509.973515,108.635084 1509.463647,114.388726 1519.511467,115.470740 1534.011187,116.937116"/>
    <poly id="263364397" type="historic" color="128,255,128" fill="1" layer="-1.00" shape="1269.606474,932.257927 1270.042279,927.991036 1274.081635,928.399728 1273.645828,932.666619 1269.606474,932.257927"/>
    <poly id="263364397#1" type="tourism" color="207,245,201" fill="1" layer="-2.00" shape="1269.606474,932.257927 1270.042279,927.991036 1274.081635,928.399728 1273.645828,932.666619 1269.606474,932.257927"/>
    <poly id="263364399" type="amenity" color="237,199,199" fill="1" layer="-1.00" shape="1314.812493,879.935203 1314.159968,886.474402 1316.070882,886.659767 1315.823528,889.186882 1321.195532,889.724138 1322.095419,880.657824 1314.812493,879.935203"/>
    <poly id="263364399#1" type="building" color="255,230,230" fill="1" layer="-1.00" shape="1314.812493,879.935203 1314.159968,886.474402 1316.070882,886.659767 1315.823528,889.186882 1321.195532,889.724138 1322.095419,880.657824 1314.812493,879.935203"/>
    <poly id="263364400" type="amenity" color="237,199,199" fill="1" layer="-1.00" shape="1353.776260,882.170235 1364.688169,883.248406 1370.076964,883.786058 1371.342584,870.984497 1366.096015,870.472110 1355.041614,869.379774 1353.776260,882.170235"/>
    <poly id="263364400#1" type="building" color="255,230,230" fill="1" layer="-1.00" shape="1353.776260,882.170235 1364.688169,883.248406 1370.076964,883.786058 1371.342584,870.984497 1366.096015,870.472110 1355.041614,869.379774 1353.776260,882.170235"/>
    <poly id="263364401" type="amenity" color="237,199,199" fill="1" layer="-1.00" shape="1316.421157,863.664470 1315.550983,872.520386 1322.758601,873.230286 1323.636941,864.385652 1316.421157,863.664470"/>
    <poly id="263364401#1" type="building" color="255,230,230" fill="1" layer="-1.00" shape="1316.421157,863.664470 1315.550983,872.520386 1322.758601,873.230286 1323.636941,864.385652 1316.421157,863.664470"/>
    <poly id="263364402" type="landuse" color="194,194,130" fill="1" layer="-3.00" shape="1264.451796,934.513248 1266.676422,936.127034 1275.438019,937.214519 1277.810607,935.843671 1279.038547,926.751065 1277.508412,924.474630 1267.853323,923.145848 1265.891771,924.147869 1264.451796,934.513248"/>
    <poly id="264868538" type="amenity" color="237,199,199" fill="1" layer="-1.00" shape="1682.816745,1013.567666 1693.323777,1014.326638 1693.416944,1013.117963 1696.108761,1013.309107 1695.982014,1014.517060 1695.939368,1014.938215 1696.844318,1015.035416 1701.012538,977.016438 1701.714541,970.145106 1687.528814,968.607309 1682.816745,1013.567666"/>
    <poly id="264868538#1" type="building" color="255,230,230" fill="1" layer="-1.00" shape="1682.816745,1013.567666 1693.323777,1014.326638 1693.416944,1013.117963 1696.108761,1013.309107 1695.982014,1014.517060 1695.939368,1014.938215 1696.844318,1015.035416 1701.012538,977.016438 1701.714541,970.145106 1687.528814,968.607309 1682.816745,1013.567666"/>
    <poly id="264868542" type="amenity" color="237,199,199" fill="1" layer="-1.00" shape="1348.033352,908.326479 1344.741834,907.900463 1337.348376,907.242090 1331.086305,906.696843 1327.290862,906.271135 1328.482168,894.189939 1325.010480,893.549033 1328.405825,855.057980 1353.727028,857.444765 1348.033352,908.326479"/>
    <poly id="264868542#1" type="building" color="255,230,230" fill="1" layer="-1.00" shape="1348.033352,908.326479 1344.741834,907.900463 1337.348376,907.242090 1331.086305,906.696843 1327.290862,906.271135 1328.482168,894.189939 1325.010480,893.549033 1328.405825,855.057980 1353.727028,857.444765 1348.033352,908.326479"/>
    <poly id="264871315" type="amenity" color="237,199,199" fill="1" layer="-1.00" shape="862.507973,898.241033 863.203075,898.333644 864.027838,891.575966 852.677391,890.189277 852.534231,891.385780 844.685196,890.429385 844.634204,890.850363 838.276112,890.081346 837.216764,898.777748 844.068952,899.612862 844.484809,896.267418 862.486673,898.451612 862.507973,898.241033"/>
    <poly id="264871315#1" type="building" color="255,230,230" fill="1" layer="-1.00" shape="862.507973,898.241033 863.203075,898.333644 864.027838,891.575966 852.677391,890.189277 852.534231,891.385780 844.685196,890.429385 844.634204,890.850363 838.276112,890.081346 837.216764,898.777748 844.068952,899.612862 844.484809,896.267418 862.486673,898.451612 862.507973,898.241033"/>
    <poly id="264904074" type="amenity" color="237,199,199" fill="1" layer="-1.00" shape="1453.643158,120.521566 1421.883327,118.229697 1420.417398,131.748907 1422.158155,131.652963 1420.337127,152.328633 1420.190834,154.058202 1420.325171,157.193284 1421.424894,164.269880 1422.837747,168.887418 1427.249908,171.514484 1435.321831,172.687284 1441.589952,169.456306 1444.950818,164.707930 1448.132703,158.123044 1450.636122,135.007348 1451.764056,135.287011 1453.643158,120.521566"/>
    <poly id="264904075" type="building" color="255,230,230" fill="1" layer="-1.00" shape="1507.173425,183.525710 1515.543223,184.516173 1516.606285,175.686629 1532.827936,177.145541 1533.177916,173.754279 1508.308914,171.321161 1507.173425,183.525710"/>
    <poly id="264904075#1" type="tourism" color="207,245,201" fill="1" layer="-2.00" shape="1507.173425,183.525710 1515.543223,184.516173 1516.606285,175.686629 1532.827936,177.145541 1533.177916,173.754279 1508.308914,171.321161 1507.173425,183.525710"/>
    <poly id="284527291" type="industrial" color="209,209,204" fill="1" layer="-3.00" shape="407.825620,301.716666 426.737285,303.452604 429.721556,303.727251 454.123926,305.969050 458.066095,306.619555 475.215068,307.907079 475.738424,307.784954 479.686745,308.146819 479.642511,308.645692 551.181199,315.225177 551.193857,315.025520 554.957711,315.372385 554.871600,316.259110 574.587985,318.068136 574.796531,315.773430 608.361276,318.855452 609.604074,320.836813 617.992233,321.748895 618.714372,321.364453 619.280079,320.832282 619.422461,320.457682 620.942437,304.729234 620.659158,303.834625 619.665450,303.169208 625.052776,249.881548 627.550857,223.744470 628.893774,209.622766 630.546506,189.643159 631.231759,189.413430 631.652145,189.000335 631.959022,188.395997 632.012611,187.852896 633.359125,172.776065 632.883792,172.221675 632.178462,171.817875 631.663860,171.529216 623.621271,170.946606 622.945834,171.109904 622.584690,171.502049 622.304659,172.029211 589.075431,168.543357 589.253452,166.892207 569.500128,164.826912 569.373801,166.023776 565.996304,165.674044 566.016648,165.507873 523.718382,161.517848 504.414607,159.640031 494.262943,158.701591 494.171285,159.454914 490.298680,159.083552 490.382889,158.285642 481.775300,157.413466 472.991639,156.526440 472.928957,157.102668 468.429995,156.562465 422.048092,151.852868 407.825620,301.716666"/>
    <poly id="284527292" type="building" color="255,230,230" fill="1" layer="-1.00" shape="588.283666,184.787160 621.222900,187.689259 622.293101,189.100479 630.546506,189.643159 631.231759,189.413430 631.652145,189.000335 631.959022,188.395997 632.012611,187.852896 633.359125,172.776065 632.883792,172.221675 632.178462,171.817875 631.663860,171.529216 623.621271,170.946606 622.945834,171.109904 622.584690,171.502049 622.304659,172.029211 589.075431,168.543357 588.283666,184.787160"/>
    <poly id="284527293" type="building" color="255,230,230" fill="1" layer="-1.00" shape="574.796531,315.773430 608.361276,318.855452 609.604074,320.836813 617.992233,321.748895 618.714372,321.364453 619.280079,320.832282 619.422461,320.457682 620.942437,304.729234 620.659158,303.834625 619.665450,303.169208 611.542131,302.440491 610.697377,302.666818 610.276761,303.091016 610.030553,303.607792 598.345577,302.503191 576.375284,300.434978 574.796531,315.773430"/>
    <poly id="284527295" type="building" color="255,230,230" fill="1" layer="-1.00" shape="558.533593,285.159791 562.842929,285.529402 571.004219,286.447695 572.993216,262.510044 585.719770,263.614612 587.826818,243.200413 589.602555,222.568111 577.942633,221.464083 579.489028,205.280808 580.254608,196.955761 571.648228,196.816566 567.218460,196.577667 562.733221,241.065607 558.533593,285.159791"/>
    <poly id="284527299" type="building" color="255,230,230" fill="1" layer="-1.00" shape="551.193857,315.025520 554.957711,315.372385 556.469046,299.255000 552.537750,298.882349 551.193857,315.025520"/>
    <poly id="284527300" type="building" color="255,230,230" fill="1" layer="-1.00" shape="567.218460,196.577667 568.364192,184.606516 572.736488,185.177400 571.648228,196.816566 567.218460,196.577667"/>
    <poly id="284527301" type="building" color="255,230,230" fill="1" layer="-1.00" shape="564.339716,182.299250 567.815846,181.962450 569.373801,166.023776 565.996304,165.674044 564.339716,182.299250"/>
    <poly id="284527308" type="building" color="255,230,230" fill="1" layer="-1.00" shape="492.859443,175.676520 488.566358,175.329513 490.298680,159.083552 494.171285,159.454914 492.859443,175.676520"/>
    <poly id="284527310" type="building" color="255,230,230" fill="1" layer="-1.00" shape="557.465467,296.643890 558.533593,285.159791 562.842929,285.529402 561.759426,296.946531 557.465467,296.643890"/>
    <poly id="284527315" type="building" color="255,230,230" fill="1" layer="-1.00" shape="475.738424,307.784954 479.686745,308.146819 481.385345,291.511390 482.932359,274.894943 484.256236,275.045350 483.352481,264.252262 479.765614,263.875889 478.873932,274.575157 478.616574,277.190928 475.738424,307.784954"/>
    <poly id="284527316" type="tourism" color="207,245,201" fill="1" layer="-2.00" shape="497.849412,250.477689 545.425791,254.680142 546.809021,239.448587 548.171911,224.383204 524.980366,222.066966 500.807481,219.685446 497.849412,250.477689"/>
    <poly id="284527317" type="building" color="255,230,230" fill="1" layer="-1.00" shape="485.740152,256.661541 484.155539,256.527788 483.352481,264.252262 484.256236,275.045350 550.349687,281.364308 551.543800,263.973955 485.740152,256.661541"/>
    <poly id="284527330" type="parking" color="184,184,179" fill="1" layer="-1.00" shape="569.546225,297.701335 571.004219,286.447695 572.993216,262.510044 585.719770,263.614612 587.826818,243.200413 589.602555,222.568111 577.942633,221.464083 579.489028,205.280808 628.893774,209.622766 627.550857,223.744470 616.609267,223.222170 614.476476,243.658029 602.415842,242.834192 602.257067,248.306573 598.800767,297.703557 598.345577,302.503191 576.375284,300.434978 576.571171,298.339928 569.546225,297.701335"/>
    <poly id="284527335" type="leisure" color="207,245,201" fill="1" layer="-2.00" shape="250.640913,192.518423 280.901286,195.395272 285.355118,148.751817 255.085920,145.885878 250.640913,192.518423"/>
    <poly id="284527335#1" type="sport" color="79,230,125" fill="1" layer="-2.00" shape="250.640913,192.518423 280.901286,195.395272 285.355118,148.751817 255.085920,145.885878 250.640913,192.518423"/>
    <poly id="284527336" type="parking" color="184,184,179" fill="1" layer="-1.00" shape="350.418721,137.231321 432.711309,144.160849 433.483462,135.913684 351.300043,128.586625 350.418721,137.231321"/>
    <poly id="284527337" type="parking" color="184,184,179" fill="1" layer="-1.00" shape="181.033196,113.298816 238.037316,118.954949 239.221053,97.676912 223.663087,96.990292 214.332924,96.913866 183.134997,93.473119 181.033196,113.298816"/>
    <poly id="30113670" type="amenity" color="237,199,199" fill="1" layer="-1.00" shape="45.782066,915.634823 116.568855,920.172872 117.881174,899.941604 67.592947,896.683677 70.825844,846.959726 111.427420,849.589488 112.862174,827.550384 52.289809,824.073784 45.782066,915.634823"/>
    <poly id="30113670#1" type="building" color="255,230,230" fill="1" layer="-1.00" shape="45.782066,915.634823 116.568855,920.172872 117.881174,899.941604 67.592947,896.683677 70.825844,846.959726 111.427420,849.589488 112.862174,827.550384 52.289809,824.073784 45.782066,915.634823"/>
    <poly id="303021419" type="building" color="255,230,230" fill="1" layer="-1.00" shape="1619.491662,239.417984 1620.453206,232.974297 1610.996155,232.160287 1612.225360,219.902222 1617.262501,220.410265 1617.615620,216.874681 1630.236383,217.823296 1627.635423,240.370402 1619.491662,239.417984"/>
    <poly id="303021621" type="building" color="255,230,230" fill="1" layer="-1.00" shape="1535.039442,232.984003 1537.104652,209.947771 1554.550255,211.122011 1552.154042,234.706489 1535.039442,232.984003"/>
    <poly id="303021622" type="building" color="255,230,230" fill="1" layer="-1.00" shape="1531.687585,189.183377 1532.827936,177.145541 1533.177916,173.754279 1558.105437,176.199846 1556.550272,191.516479 1542.768910,190.243185 1531.687585,189.183377"/>
    <poly id="303021623" type="building" color="255,230,230" fill="1" layer="-1.00" shape="1533.501473,209.548316 1534.365206,200.614531 1541.699652,201.316229 1542.768910,190.243185 1556.550272,191.516479 1555.615057,200.648656 1554.550255,211.122011 1537.104652,209.947771 1533.501473,209.548316"/>
    <poly id="305900265" type="natural" color="140,196,107" fill="0" layer="-4.00" shape="1435.294356,404.958353 1449.141530,406.277304"/>
    <poly id="305900267" type="natural" color="140,196,107" fill="0" layer="-4.00" shape="1388.316798,399.907640 1425.633830,403.851422"/>