<?xml version="1.0"?>

<routes> <!-- The opening tag -->

   <!-- Vehicle types -->
   <vType id="passenger" length="5.0" width="2.0" maxSpeed="70.0" accel="2.6" decel="4.5" sigma="0.5"/>

   <!-- Routes + associated vehicles & flows -->
   <route id="trip-0" color="Magenta" edges="24884068#0 -24884068#2 1070609213#0 68573893#3 68573893#6 68573893#9 68573893#12 68555527#0 68558008#1 68576721#0 29980621#0 29980621#2 29980621#3 30029559#7 30029559#8 29976859#4 29976859#5 29976859#6 29980636 24884196#8 24884196#9 29980635"/>
   <vehicle id="vehicle-0" type="passenger" color="Orange" depart="0.0" route="trip-0"/>

   <route id="trip-1" color="Magenta" edges="136433234#4 29980631#1 29980631#2 29980631#3 29980631#4 29980631#5 29980631#6 24884052#0 24884052#1 24884052#2 24884052#3 29980616#4 68576719#0 68576719#3 68576719#6 68576719#9 68576719#12 68576721#0 -68576721#3"/>
   <vehicle id="vehicle-1" type="passenger" color="Orange" depart="0.01" route="trip-1"/>

   <route id="trip-2" color="Magenta" edges="68573893#12 68555527#0 68558008#1 68576721#0 29980626#0 24884016#0 24884016#3 24884016#7 24884016#9 29980624#0 29980624#1 30016109#7 30016109#8 30029558#3 24884242#5 24884242#6 24884242#7"/>
   <vehicle id="vehicle-2" type="passenger" color="Orange" depart="0.02" route="trip-2"/>

   <route id="trip-3" color="Magenta" edges="136433234#3 136433234#4 29980631#1 29980631#2 29980631#3 29980631#4 29980631#5 29980631#6 24884052#0 24884052#1 24884052#2 24884052#3 24884052#5 24884052#7 24884052#8 24884052#9 24884052#10 30029586#4"/>
   <vehicle id="vehicle-3" type="passenger" color="Orange" depart="0.03" route="trip-3"/>

   <route id="trip-4" color="Magenta" edges="24909625#0 24909625#1 24884194#5 24888729#0 24888729#1 24888729#2 24888743#3 24888743#4 24888743#5"/>
   <vehicle id="vehicle-4" type="passenger" color="Orange" depart="0.04" route="trip-4"/>

   <route id="trip-5" color="Magenta" edges="24884194#0 24884194#1 24884242#2 24884242#3 24884242#5 24884242#6 24884242#7 24884242#8 24909598#0 24909598#1 24909639#2 24909639#3 29316823#4"/>
   <vehicle id="vehicle-5" type="passenger" color="Orange" depart="0.05" route="trip-5"/>

   <route id="trip-6" color="Magenta" edges="29980620#0 29980620#1 29975386#0 29975386#1 29975386#2 29975386#3 29975386#4 29975386#5 29975386#6 69135107#0 69135107#1 24884194#4 24884194#5 24884194#6"/>
   <vehicle id="vehicle-6" type="passenger" color="Orange" depart="0.06" route="trip-6"/>

   <route id="trip-7" color="Magenta" edges="-24909639#6 -24909639#5 -24909639#3 -24909639#2 -24909639#1 -24909639#0 69142626#1 24909618 24884206#0 24884206#1 29980631#4 29980631#5 29980631#6 24884052#0 24884052#1 24884052#2 24884052#3 24884052#5 24884052#7 24884052#8 24884052#9 68573892#1 48563882#0 666670877 24909820#0 27917541#0 25563739#3 28279077#0 24884071#2"/>
   <vehicle id="vehicle-7" type="passenger" color="Orange" depart="0.07" route="trip-7"/>

   <route id="trip-8" color="Magenta" edges="29975387#0 24884196#4 24884196#5 24884052#0 24884052#1 24884052#2 24884052#3 24884052#5 24884052#7 24884052#8 24884052#9 68573892#1 48563882#0 666670877 24909820#0 27917541#0 25563739#3 28279077#0 24884071#2 24889172#0"/>
   <vehicle id="vehicle-8" type="passenger" color="Orange" depart="0.08" route="trip-8"/>

   <route id="trip-9" color="Magenta" edges="-69142623 29975542#0 29975542#1 69142626#0 69142626#1 24909618 24884189#3 24884242#3 24884242#5"/>
   <vehicle id="vehicle-9" type="passenger" color="Orange" depart="0.09" route="trip-9"/>

   <route id="trip-10" color="Magenta" edges="68576716#1 68576723#2 24884043#7 24884043#8 1068572560#0"/>
   <vehicle id="vehicle-10" type="passenger" color="Orange" depart="0.1" route="trip-10"/>

   <route id="trip-11" color="Magenta" edges="68573893#12 68555527#0 68558008#1 68576721#0 29980626#0 24884016#0 24884016#3 24884016#7 24884016#9 29980624#0 29980624#1 29980624#2 24884242#8 24909598#0 -29975542#0 69142623"/>
   <vehicle id="vehicle-11" type="passenger" color="Orange" depart="0.11" route="trip-11"/>

   <route id="trip-12" color="Magenta" edges="29975377#5 29980616#2 29980616#4 68576719#0 68576719#3 68576719#6 68576719#9 68576719#12 68576721#0 29980626#0 24884016#0 24884016#3 24884016#7 24884016#9 69142609#0 68576718#0 68576718#0-AddedOffRampEdge"/>
   <vehicle id="vehicle-12" type="passenger" color="Orange" depart="0.12" route="trip-12"/>

   <route id="trip-13" color="Magenta" edges="-29316802 29316802 562692078#0 562692078#1 562692078#2 562692082 69142617 50317015#0 30016109#6 30016109#7 24884041 30029562#0 30029562#1 30029562#2 29980621#3 29980621#4 24884043#2 24884043#4 24884043#6"/>
   <vehicle id="vehicle-13" type="passenger" color="Orange" depart="0.13" route="trip-13"/>

   <route id="trip-14" color="Magenta" edges="-30029585#3 -30029585#2 -68558008#3 24884077#0 24884077#3 24884077#4 24884077#5 24884077#6 24884077#7"/>
   <vehicle id="vehicle-14" type="passenger" color="Orange" depart="0.14" route="trip-14"/>

   <route id="trip-15" color="Magenta" edges="-24889463 24889463 24884016#3 24884016#7 24884016#9 29980624#0 29980624#1 29980624#2 29980624#3 69142626#0 69142626#1 69142626#2 69142626#3 -29975400#4"/>
   <vehicle id="vehicle-15" type="passenger" color="Orange" depart="0.15" route="trip-15"/>

   <route id="trip-16" color="Magenta" edges="24884068#3 -24884068#4 -24884068#2 1070609213#0 68573893#3 68573893#6 68573893#9 68573893#12 68555527#0 68558008#1 68576721#0 29980621#0 29980621#2 29980621#3 29980621#4 24884043#2 68576719#3"/>
   <vehicle id="vehicle-16" type="passenger" color="Orange" depart="0.16" route="trip-16"/>

   <route id="trip-17" color="Magenta" edges="-24909639#0 24909639#0 24909639#1 24909639#2 24909639#3 24909639#4 24909639#6 29976482#1 29976482#3 29976465#2 29976465#3 29976465#4 -29976465#4"/>
   <vehicle id="vehicle-17" type="passenger" color="Orange" depart="0.17" route="trip-17"/>

   <route id="trip-18" color="Magenta" edges="600289217#0 69131924#1 69142602#0 -29980626#3 29980621#0 29980621#2 29980621#3 29980621#4 29980621#5 29980621#6 29980621#7"/>
   <vehicle id="vehicle-18" type="passenger" color="Orange" depart="0.18" route="trip-18"/>

   <route id="trip-19" color="Magenta" edges="29980630 -29980630 -24909587#0 416563916#1 24909577 562692078#0 562692078#1 562692078#2 562692082 -69142623 29975542#0 -29975542#0"/>
   <vehicle id="vehicle-19" type="passenger" color="Orange" depart="0.19" route="trip-19"/>

   <route id="trip-20" color="Magenta" edges="24884189#2 24884189#3 24884242#3 24884242#5 24884242#6 24884242#7 24884242#8 24909598#0 -29975542#0 29975542#0"/>
   <vehicle id="vehicle-20" type="passenger" color="Orange" depart="0.2" route="trip-20"/>

   <route id="trip-21" color="Magenta" edges="29975372#9 24889264#0 301785152 24884016#7 24884016#9 29980624#0 29980624#1 29980624#2 29980624#3 69142626#0 69142626#1 24909618 24884206#0 24884206#1 24884206#2 24884206#3 24884206#4 48563880"/>
   <vehicle id="vehicle-21" type="passenger" color="Orange" depart="0.21" route="trip-21"/>

   <route id="trip-22" color="Magenta" edges="29980631#3 24884206#2 29975386#5 29975386#6 69135107#0 69135107#1 69135107#2 69135107#3 69142626#3 -29975400#4 -29975400#3 -29975400#2 -29975400#1 -29975400#0 29975400#0"/>
   <vehicle id="vehicle-22" type="passenger" color="Orange" depart="0.22" route="trip-22"/>

   <route id="trip-23" color="Magenta" edges="69142626#4 24884189#0 24909625#1 24884194#5 24888729#0 29980631#2 29980631#3 29980631#4 29980631#5 29980631#6 24884052#0 24884052#1 24884052#2 24884052#3 29980616#4 68576719#0 68576719#3 68576719#6 30029562#5 30029562#7 30029562#8 30029562#9 398989762#2 -24884042#3"/>
   <vehicle id="vehicle-23" type="passenger" color="Orange" depart="0.23" route="trip-23"/>

   <route id="trip-24" color="Magenta" edges="24884205#0 24884205#1 24884205#2 24884196#3 24884196#4 29975386#2 29975386#3 29975386#4 29975386#5 29975386#6 29975386#7 29975386#8 24888729#2 24888729#3 24888729#4 24888745#0 24888745#1 136433234#0 136433234#1"/>
   <vehicle id="vehicle-24" type="passenger" color="Orange" depart="0.24" route="trip-24"/>

</routes> <!-- The closing tag -->
