<?xml version="1.0" encoding="UTF-8"?>

<!-- generated on 2022-07-06 09:55:24 by Eclipse SUMO netconvert Version 1.11.0
<configuration xmlns:xsi="http://www.w3.org/2001/XMLSchema-instance" xsi:noNamespaceSchemaLocation="http://sumo.dlr.de/xsd/netconvertConfiguration.xsd">

    <input>
        <type-files value="/home/veins/workspace.omnetpp/tiriols/sumo-1.11.0/data/typemap/osmNetconvert.typ.xml"/>
        <osm-files value="bari.osm.xml"/>
    </input>

    <output>
        <output-file value="bari.net.xml"/>
    </output>

    <projection>
        <proj.utm value="true"/>
    </projection>

    <processing>
        <geometry.remove value="true"/>
        <roundabouts.guess value="true"/>
    </processing>

    <tls_building>
        <tls.discard-simple value="true"/>
        <tls.join value="true"/>
        <tls.guess-signals value="true"/>
    </tls_building>

    <ramp_guessing>
        <ramps.guess value="true"/>
    </ramp_guessing>

    <edge_removal>
        <remove-edges.by-vclass value="rail,rail_electric,bicycle,pedestrian"/>
        <remove-edges.by-type value="rail,rail_urban,rail_electric,railway.tram,railway.subway"/>
    </edge_removal>

    <junctions>
        <no-internal-links value="true"/>
        <junctions.join value="true"/>
    </junctions>

    <report>
        <aggregate-warnings value="5"/>
    </report>

</configuration>
-->

<net version="1.9" junctionCornerDetail="5" limitTurnSpeed="5.50" xmlns:xsi="http://www.w3.org/2001/XMLSchema-instance" xsi:noNamespaceSchemaLocation="http://sumo.dlr.de/xsd/net_file.xsd">

    <location netOffset="-655422.16,-4553495.26" convBoundary="0.00,0.00,1779.97,1215.31" origBoundary="16.847867,41.117817,16.873978,41.128684" projParameter="+proj=utm +zone=33 +ellps=WGS84 +datum=WGS84 +units=m +no_defs"/>

    <type id="highway.bridleway" priority="1" numLanes="1" speed="2.78" allow="pedestrian" oneway="1" width="2.00"/>
    <type id="highway.bus_guideway" priority="1" numLanes="1" speed="27.78" allow="bus" oneway="1"/>
    <type id="highway.cycleway" priority="1" numLanes="1" speed="8.33" allow="bicycle" oneway="0" width="1.00"/>
    <type id="highway.footway" priority="1" numLanes="1" speed="2.78" allow="pedestrian" oneway="1" width="2.00"/>
    <type id="highway.ford" priority="1" numLanes="1" speed="2.78" allow="army" oneway="0"/>
    <type id="highway.living_street" priority="2" numLanes="1" speed="2.78" disallow="tram rail_urban rail rail_electric rail_fast ship" oneway="0"/>
    <type id="highway.motorway" priority="14" numLanes="2" speed="39.44" allow="private emergency authority army vip passenger hov taxi bus coach delivery truck trailer motorcycle evehicle custom1 custom2" oneway="1"/>
    <type id="highway.motorway_link" priority="9" numLanes="1" speed="22.22" allow="private emergency authority army vip passenger hov taxi bus coach delivery truck trailer motorcycle evehicle custom1 custom2" oneway="1"/>
    <type id="highway.path" priority="1" numLanes="1" speed="2.78" allow="pedestrian bicycle" oneway="0" width="2.00"/>
    <type id="highway.pedestrian" priority="1" numLanes="1" speed="2.78" allow="pedestrian" oneway="1" width="2.00"/>
    <type id="highway.primary" priority="12" numLanes="2" speed="27.78" disallow="tram rail_urban rail rail_electric rail_fast ship" oneway="0"/>
    <type id="highway.primary_link" priority="7" numLanes="1" speed="22.22" disallow="tram rail_urban rail rail_electric rail_fast ship" oneway="0"/>
    <type id="highway.raceway" priority="15" numLanes="2" speed="83.33" allow="vip" oneway="0"/>
    <type id="highway.residential" priority="3" numLanes="1" speed="13.89" disallow="tram rail_urban rail rail_electric rail_fast ship" oneway="0"/>
    <type id="highway.secondary" priority="11" numLanes="1" speed="27.78" disallow="tram rail_urban rail rail_electric rail_fast ship" oneway="0"/>
    <type id="highway.secondary_link" priority="6" numLanes="1" speed="22.22" disallow="tram rail_urban rail rail_electric rail_fast ship" oneway="0"/>
    <type id="highway.service" priority="1" numLanes="1" speed="5.56" allow="pedestrian delivery bicycle" oneway="0"/>
    <type id="highway.stairs" priority="1" numLanes="1" speed="1.39" allow="pedestrian" oneway="1" width="2.00"/>
    <type id="highway.step" priority="1" numLanes="1" speed="1.39" allow="pedestrian" oneway="1" width="2.00"/>
    <type id="highway.steps" priority="1" numLanes="1" speed="1.39" allow="pedestrian" oneway="1" width="2.00"/>
    <type id="highway.tertiary" priority="10" numLanes="1" speed="22.22" disallow="tram rail_urban rail rail_electric rail_fast ship" oneway="0"/>
    <type id="highway.tertiary_link" priority="5" numLanes="1" speed="22.22" disallow="tram rail_urban rail rail_electric rail_fast ship" oneway="0"/>
    <type id="highway.track" priority="1" numLanes="1" speed="5.56" allow="pedestrian motorcycle moped bicycle" oneway="0"/>
    <type id="highway.trunk" priority="13" numLanes="2" speed="27.78" disallow="pedestrian bicycle tram rail_urban rail rail_electric rail_fast ship" oneway="0"/>
    <type id="highway.trunk_link" priority="8" numLanes="1" speed="22.22" disallow="pedestrian bicycle tram rail_urban rail rail_electric rail_fast ship" oneway="0"/>
    <type id="highway.unclassified" priority="4" numLanes="1" speed="13.89" disallow="tram rail_urban rail rail_electric rail_fast ship" oneway="0"/>
    <type id="highway.unsurfaced" priority="1" numLanes="1" speed="8.33" disallow="tram rail_urban rail rail_electric rail_fast ship" oneway="0"/>
    <type id="railway.highspeed" priority="21" numLanes="1" speed="69.44" allow="rail_fast" oneway="1"/>
    <type id="railway.light_rail" priority="19" numLanes="1" speed="27.78" allow="rail_urban" oneway="1"/>
    <type id="railway.preserved" priority="16" numLanes="1" speed="27.78" allow="rail" oneway="1"/>
    <type id="railway.rail" priority="20" numLanes="1" speed="44.44" allow="rail" oneway="1"/>
    <type id="railway.subway" priority="18" numLanes="1" speed="27.78" allow="rail_urban" oneway="1"/>
    <type id="railway.tram" priority="17" numLanes="1" speed="13.89" allow="tram" oneway="1"/>

    <edge id="-1040770884" from="9582573879" to="1481415181" priority="1" type="highway.service">
        <lane id="-1040770884_0" index="0" allow="pedestrian delivery bicycle" speed="5.56" length="14.09" shape="166.13,828.28 175.57,829.20"/>
    </edge>
    <edge id="-1040774295#0" from="9582594006" to="cluster_1437292695_1437292702" priority="1" type="highway.service" shape="179.87,856.54 184.03,843.20">
        <lane id="-1040774295#0_0" index="0" allow="pedestrian delivery bicycle" speed="5.56" length="14.11" shape="180.03,850.65 181.32,846.53"/>
    </edge>
    <edge id="-1040774295#1" from="9582594013" to="9582594006" priority="1" type="highway.service" shape="175.38,906.26 158.20,904.54 162.14,855.30 179.87,856.54">
        <lane id="-1040774295#1_0" index="0" allow="pedestrian delivery bicycle" speed="5.56" length="84.43" shape="170.51,907.38 156.48,905.97 160.67,853.60 175.23,854.61"/>
    </edge>
    <edge id="-1040774295#2" from="9582594006" to="9582594013" priority="1" type="highway.service" shape="179.87,856.54 196.25,857.22 193.42,885.39 188.78,903.32 183.25,906.60 175.38,906.26">
        <lane id="-1040774295#2_0" index="0" allow="pedestrian delivery bicycle" speed="5.56" length="77.54" shape="185.60,855.17 198.01,855.69 195.00,885.67 190.16,904.36 183.65,908.22 180.15,908.07"/>
    </edge>
    <edge id="-1040774295#3" from="9582594013" to="9582594006" priority="1" type="highway.service">
        <lane id="-1040774295#3_0" index="0" allow="pedestrian delivery bicycle" speed="5.56" length="49.92" shape="174.22,901.28 177.85,861.14"/>
    </edge>
    <edge id="-1057971691" from="9721277048" to="9721277045" priority="1" type="highway.service" shape="439.04,634.32 433.16,645.66 470.98,666.27 479.50,671.04">
        <lane id="-1057971691_0" index="0" allow="pedestrian delivery bicycle" speed="5.56" length="65.61" shape="440.46,635.06 435.30,645.00 471.76,664.87 476.14,667.32"/>
    </edge>
    <edge id="-1057971693#0" from="9721277073" to="9721277068" priority="1" type="highway.service" shape="176.56,166.02 157.32,164.83 150.45,164.22">
        <lane id="-1057971693#0_0" index="0" allow="pedestrian delivery bicycle" speed="5.56" length="26.17" shape="171.87,167.34 157.20,166.43 153.40,166.09"/>
    </edge>
    <edge id="-1057971693#1" from="9721277071" to="9721277073" priority="1" type="highway.service">
        <lane id="-1057971693#1_0" index="0" allow="pedestrian delivery bicycle" speed="5.56" length="38.66" shape="210.14,171.08 181.05,168.09"/>
    </edge>
    <edge id="-1057971693#2" from="9721277070" to="9721277071" priority="1" type="highway.service" shape="238.64,174.53 222.28,172.78 215.02,169.97">
        <lane id="-1057971693#2_0" index="0" allow="pedestrian delivery bicycle" speed="5.56" length="24.24" shape="235.39,175.79 221.90,174.35 218.09,172.87"/>
    </edge>
    <edge id="-1057971694" from="9721277071" to="9721277073" priority="1" type="highway.service" shape="215.02,169.97 216.75,150.46 178.42,146.28 176.56,166.02">
        <lane id="-1057971694_0" index="0" allow="pedestrian delivery bicycle" speed="5.56" length="77.98" shape="213.85,165.10 215.02,151.88 179.86,148.05 178.59,161.52"/>
    </edge>
    <edge id="-1057971697#0" from="9721277103" to="9721277098" priority="1" type="highway.service" shape="974.17,109.92 972.92,116.47 940.60,112.85">
        <lane id="-1057971697#0_0" index="0" allow="pedestrian delivery bicycle" speed="5.56" length="39.20" shape="974.94,114.43 974.22,118.22 943.53,114.78"/>
    </edge>
    <edge id="-1057971697#1" from="9721277101" to="9721277103" priority="1" type="highway.service" shape="996.04,92.98 976.25,91.08 974.17,109.92">
        <lane id="-1057971697#1_0" index="0" allow="pedestrian delivery bicycle" speed="5.56" length="38.83" shape="992.66,94.27 977.67,92.83 976.27,105.40"/>
    </edge>
    <edge id="-1057971697#2" from="9721277103" to="9721277101" priority="1" type="highway.service" shape="974.17,109.92 993.95,111.97 996.04,92.98">
        <lane id="-1057971697#2_0" index="0" allow="pedestrian delivery bicycle" speed="5.56" length="38.99" shape="979.03,108.81 992.54,110.21 994.09,96.03"/>
    </edge>
    <edge id="-106494193#1" from="1225113504" to="330422371" priority="1" type="highway.service" shape="1376.39,941.14 1377.60,930.90 1378.26,923.74">
        <lane id="-106494193#1_0" index="0" allow="pedestrian delivery bicycle" speed="5.56" length="17.50" shape="1375.35,936.28 1376.01,930.73 1376.23,928.31"/>
    </edge>
    <edge id="-106494193#3" from="620088471" to="1225113504" priority="1" type="highway.service" shape="1333.35,949.32 1373.84,953.41 1376.92,953.62 1376.34,949.48 1376.39,941.14">
        <lane id="-106494193#3_0" index="0" allow="pedestrian delivery bicycle" speed="5.56" length="56.30" shape="1338.19,948.20 1374.00,951.82 1375.06,951.89 1374.73,949.59 1374.76,945.49"/>
    </edge>
    <edge id="-106494193#4" from="330422373" to="620088471" priority="1" type="highway.service" shape="1287.73,944.51 1294.21,945.20 1333.35,949.32">
        <lane id="-106494193#4_0" index="0" allow="pedestrian delivery bicycle" speed="5.56" length="45.88" shape="1291.07,943.26 1294.38,943.60 1328.83,947.24"/>
    </edge>
    <edge id="-106494197#0" from="1225113453" to="1225113504" priority="1" type="highway.service" shape="1334.57,937.26 1372.26,940.65 1376.39,941.14">
        <lane id="-106494197#0_0" index="0" allow="pedestrian delivery bicycle" speed="5.56" length="42.00" shape="1339.43,936.09 1371.91,939.01"/>
    </edge>
    <edge id="-106494197#1" from="1225113576" to="1225113453" priority="1" type="highway.service" shape="1289.30,932.86 1295.70,933.49 1334.57,937.26">
        <lane id="-106494197#1_0" index="0" allow="pedestrian delivery bicycle" speed="5.56" length="45.48" shape="1292.59,931.58 1295.85,931.90 1330.04,935.22"/>
    </edge>
    <edge id="-130522842#1" from="cluster_1437292689_329994613" to="1437292698" priority="1" type="highway.service" shape="112.84,811.30 111.75,818.31 111.13,824.09 51.11,820.09 47.16,820.30 44.66,821.41 43.25,824.14 42.51,827.31 38.70,874.47 36.38,877.34 38.84,880.48 37.54,909.63">
        <lane id="-130522842#1_0" index="0" allow="pedestrian delivery bicycle" speed="5.56" length="170.84" shape="113.65,816.46 113.33,818.52 112.56,825.78 51.10,821.69 47.54,821.89 45.82,822.64 44.76,824.70 44.10,827.56 40.25,875.09 38.43,877.36 40.46,879.96 39.13,909.70"/>
    </edge>
    <edge id="-134796052#0" from="1481415181" to="1481415186" priority="1" type="highway.service">
        <lane id="-134796052#0_0" index="0" allow="pedestrian delivery bicycle" speed="5.56" length="75.23" shape="184.77,829.93 255.18,834.34"/>
    </edge>
    <edge id="-134796052#1" from="cluster_1437292695_1437292702" to="1481415181" priority="1" type="highway.service" shape="179.21,842.93 180.00,831.24">
        <lane id="-134796052#1_0" index="0" allow="pedestrian delivery bicycle" speed="5.56" length="12.51" shape="177.83,839.66 178.09,835.80"/>
    </edge>
    <edge id="-134796054" from="1481415240" to="4367898360" priority="1" type="highway.service">
        <lane id="-134796054_0" index="0" allow="pedestrian delivery bicycle" speed="5.56" length="77.63" shape="286.52,837.50 356.00,843.00"/>
    </edge>
    <edge id="-134796056" from="330003440" to="1481415173" priority="4" type="highway.unclassified">
        <lane id="-134796056_0" index="0" disallow="tram rail_urban rail rail_electric rail_fast ship" speed="13.89" length="57.25" shape="147.40,916.89 197.29,919.78"/>
    </edge>
    <edge id="-135048721#0" from="2882564675" to="2882564691" priority="1" type="highway.service">
        <lane id="-135048721#0_0" index="0" allow="pedestrian delivery bicycle" speed="5.56" length="36.10" shape="557.34,264.64 554.60,295.94"/>
    </edge>
    <edge id="-135048721#1" from="2882564654" to="2882564675" priority="1" type="highway.service">
        <lane id="-135048721#1_0" index="0" allow="pedestrian delivery bicycle" speed="5.56" length="19.46" shape="559.03,245.40 558.16,255.28"/>
    </edge>
    <edge id="-135048736#0" from="1483634411" to="1483634388" priority="1" type="highway.service">
        <lane id="-135048736#0_0" index="0" allow="pedestrian delivery bicycle" speed="5.56" length="48.56" shape="597.08,248.89 592.90,292.58"/>
    </edge>
    <edge id="-135048736#1" from="1483634299" to="1483634411" priority="1" type="highway.service">
        <lane id="-135048736#1_0" index="0" allow="pedestrian delivery bicycle" speed="5.56" length="32.11" shape="600.57,212.27 597.97,239.52"/>
    </edge>
    <edge id="-135048743" from="1483634336" to="1483634334" priority="3" type="highway.residential">
        <lane id="-135048743_0" index="0" disallow="tram rail_urban rail rail_electric rail_fast ship" speed="13.89" length="43.03" shape="1222.19,159.05 1256.68,148.76"/>
    </edge>
    <edge id="-202429365" from="3471415637" to="2123978483" priority="1" type="highway.service" shape="1366.58,137.35 1358.45,136.54 1329.02,133.68">
        <lane id="-202429365_0" index="0" allow="pedestrian delivery bicycle" speed="5.56" length="37.74" shape="1363.30,138.63 1358.30,138.14 1328.87,135.27"/>
    </edge>
    <edge id="-202430788" from="2124002491" to="2689796316" priority="1" type="highway.service" shape="1291.62,264.81 1290.73,275.34 1264.86,273.21 1261.90,303.68 1260.60,310.42">
        <lane id="-202430788_0" index="0" allow="pedestrian delivery bicycle" speed="5.56" length="74.00" shape="1293.22,264.94 1292.18,277.07 1266.30,274.93 1263.48,303.91 1263.12,305.79"/>
    </edge>
    <edge id="-202444810#0" from="2124133360" to="2124133367" priority="1" type="highway.service" shape="1312.07,342.01 1311.55,344.20 1311.46,348.53 1309.57,352.23 1305.45,355.13 1303.58,358.83 1299.40,364.58 1294.44,364.48">
        <lane id="-202444810#0_0" index="0" allow="pedestrian delivery bicycle" speed="5.56" length="31.96" shape="1313.08,347.53 1313.05,348.93 1310.82,353.31 1306.70,356.21 1304.94,359.67 1300.20,366.20 1294.41,366.08"/>
    </edge>
    <edge id="-202444811" from="2124133360" to="2124133361" priority="1" type="highway.service">
        <lane id="-202444811_0" index="0" allow="pedestrian delivery bicycle" speed="5.56" length="14.47" shape="1306.98,343.17 1297.52,342.35"/>
    </edge>
    <edge id="-202563239#1" from="322549052" to="322549051" priority="3" type="highway.residential" shape="1109.87,294.81 1119.91,295.91 1194.21,303.96 1204.48,305.08">
        <lane id="-202563239#1_0" index="0" disallow="tram rail_urban rail rail_electric rail_fast ship" speed="13.89" length="95.17" shape="1115.64,293.83 1120.09,294.32 1194.38,302.37 1201.49,303.15"/>
    </edge>
    <edge id="-202563239#3" from="305365110" to="322549052" priority="3" type="highway.residential" shape="1014.87,284.51 1098.30,293.56 1109.87,294.81">
        <lane id="-202563239#3_0" index="0" disallow="tram rail_urban rail rail_electric rail_fast ship" speed="13.89" length="95.55" shape="1020.65,283.52 1098.47,291.97 1104.44,292.61"/>
    </edge>
    <edge id="-241918042#2" from="270388601" to="330552981" priority="10" type="highway.tertiary" shape="1638.76,949.83 1701.46,957.08 1704.97,957.47 1717.13,958.82">
        <lane id="-241918042#2_0" index="0" disallow="tram rail_urban rail rail_electric rail_fast ship" speed="22.22" length="78.89" shape="1646.23,949.08 1701.64,955.49 1705.14,955.88 1717.31,957.23"/>
    </edge>
    <edge id="-24884042#0" from="322550833" to="306256362" priority="3" type="highway.residential" shape="1662.87,728.27 1673.51,729.33 1728.99,734.86 1740.27,735.98">
        <lane id="-24884042#0_0" index="0" disallow="tram rail_urban rail rail_electric rail_fast ship" speed="13.89" length="77.78" shape="1668.61,727.23 1673.67,727.74 1729.14,733.27 1740.42,734.39"/>
    </edge>
    <edge id="-24884042#3" from="322550817" to="322550833" priority="3" type="highway.residential" shape="1450.82,707.13 1514.74,713.50 1590.01,721.00 1650.11,726.99 1662.87,728.27">
        <lane id="-24884042#3_0" index="0" disallow="tram rail_urban rail rail_electric rail_fast ship" speed="13.89" length="213.10" shape="1456.57,706.10 1514.90,711.91 1590.16,719.41 1650.27,725.40 1657.44,726.12"/>
    </edge>
    <edge id="-24884056#1" from="2705425866" to="7363663688" priority="1" type="highway.service" shape="1315.36,315.61 1335.55,317.53 1339.02,317.82">
        <lane id="-24884056#1_0" index="0" allow="pedestrian delivery bicycle" speed="5.56" length="23.76" shape="1320.34,314.48 1335.70,315.94 1339.15,316.22"/>
    </edge>
    <edge id="-24884056#2" from="2705425844" to="2705425866" priority="1" type="highway.service">
        <lane id="-24884056#2_0" index="0" allow="pedestrian delivery bicycle" speed="5.56" length="18.50" shape="1301.66,312.70 1310.97,313.59"/>
    </edge>
    <edge id="-24884056#3" from="2689796316" to="2705425844" priority="1" type="highway.service">
        <lane id="-24884056#3_0" index="0" allow="pedestrian delivery bicycle" speed="5.56" length="36.51" shape="1265.75,309.30 1292.30,311.81"/>
    </edge>
    <edge id="-24884056#4" from="322549051" to="2689796316" priority="1" type="highway.service" shape="1204.48,305.08 1213.95,305.98 1260.60,310.42">
        <lane id="-24884056#4_0" index="0" allow="pedestrian delivery bicycle" speed="5.56" length="56.37" shape="1207.70,303.78 1214.10,304.39 1256.36,308.41"/>
    </edge>
    <edge id="-24884068#2" from="320970941" to="270388601" priority="3" type="highway.residential" shape="1647.35,872.98 1646.00,883.70 1640.10,941.36 1639.72,943.75 1638.76,949.83">
        <lane id="-24884068#2_0" index="0" disallow="tram rail_urban rail rail_electric rail_fast ship" speed="13.89" length="77.34" shape="1648.23,878.83 1647.59,883.89 1641.69,941.56 1641.49,942.83"/>
    </edge>
    <edge id="-24884068#4" from="320970967" to="320970941" priority="3" type="highway.residential" shape="1655.42,800.33 1648.31,863.49 1647.35,872.98">
        <lane id="-24884068#4_0" index="0" disallow="tram rail_urban rail rail_electric rail_fast ship" speed="13.89" length="73.10" shape="1656.37,806.12 1649.90,863.66 1649.51,867.56"/>
    </edge>
    <edge id="-24888745#0" from="2882564545" to="270434139" priority="3" type="highway.residential">
        <lane id="-24888745#0_0" index="0" disallow="tram rail_urban rail rail_electric rail_fast ship" speed="13.89" length="34.62" shape="214.15,121.47 236.73,124.09"/>
    </edge>
    <edge id="-24888745#1" from="322548700" to="2882564545" priority="3" type="highway.residential">
        <lane id="-24888745#1_0" index="0" disallow="tram rail_urban rail rail_electric rail_fast ship" speed="13.89" length="55.03" shape="162.03,115.41 204.81,120.38"/>
    </edge>
    <edge id="-24888745#2" from="639263442" to="322548700" priority="3" type="highway.residential">
        <lane id="-24888745#2_0" index="0" disallow="tram rail_urban rail rail_electric rail_fast ship" speed="13.89" length="69.91" shape="85.49,106.52 147.72,113.75"/>
    </edge>
    <edge id="-24889463" from="270388246" to="cluster_320970900_320970902" priority="3" type="highway.residential" shape="951.16,939.78 959.73,941.98 967.62,944.00 1044.19,983.55">
        <lane id="-24889463_0" index="0" disallow="tram rail_urban rail rail_electric rail_fast ship" speed="13.89" length="106.71" shape="959.03,940.15 960.12,940.43 968.19,942.49 1039.40,979.27"/>
    </edge>
    <edge id="-24889475#0" from="330655170" to="1438739366" priority="3" type="highway.residential">
        <lane id="-24889475#0_0" index="0" disallow="tram rail_urban rail rail_electric rail_fast ship" speed="13.89" length="95.28" shape="1133.96,980.85 1048.88,980.65"/>
    </edge>
    <edge id="-24889475#1" from="270439777" to="330655170" priority="3" type="highway.residential">
        <lane id="-24889475#1_0" index="0" disallow="tram rail_urban rail rail_electric rail_fast ship" speed="13.89" length="89.62" shape="1222.85,989.64 1147.72,981.61"/>
    </edge>
    <edge id="-24909587#0" from="270655397" to="270655396" priority="3" type="highway.residential">
        <lane id="-24909587#0_0" index="0" disallow="tram rail_urban rail rail_electric rail_fast ship" speed="13.89" length="45.39" shape="497.67,922.78 464.91,920.17"/>
    </edge>
    <edge id="-24909628#1" from="270654880" to="cluster_270654879_270654899" priority="3" type="highway.residential" shape="180.03,430.16 168.18,507.62">
        <lane id="-24909628#1_0" index="0" disallow="tram rail_urban rail rail_electric rail_fast ship" speed="13.89" length="83.29" shape="180.74,436.10 170.64,502.15"/>
    </edge>
    <edge id="-24909639#0" from="329988600" to="329988601" priority="3" type="highway.residential">
        <lane id="-24909639#0_0" index="0" disallow="tram rail_urban rail rail_electric rail_fast ship" speed="13.89" length="60.40" shape="322.79,668.47 344.58,626.20"/>
    </edge>
    <edge id="-24909639#1" from="270655174" to="329988600" priority="3" type="highway.residential">
        <lane id="-24909639#1_0" index="0" disallow="tram rail_urban rail rail_electric rail_fast ship" speed="13.89" length="62.26" shape="292.31,722.59 315.89,681.18"/>
    </edge>
    <edge id="-24909639#2" from="270654641" to="270655174" priority="3" type="highway.residential">
        <lane id="-24909639#2_0" index="0" disallow="tram rail_urban rail rail_electric rail_fast ship" speed="13.89" length="68.82" shape="283.49,792.59 288.02,735.66"/>
    </edge>
    <edge id="-24909639#3" from="1481415203" to="270654641" priority="3" type="highway.residential">
        <lane id="-24909639#3_0" index="0" disallow="tram rail_urban rail rail_electric rail_fast ship" speed="13.89" length="26.30" shape="281.54,817.21 282.60,803.76"/>
    </edge>
    <edge id="-24909639#5" from="1481415240" to="1481415203" priority="3" type="highway.residential" shape="281.66,838.72 282.15,830.15 282.56,824.51">
        <lane id="-24909639#5_0" index="0" disallow="tram rail_urban rail rail_electric rail_fast ship" speed="13.89" length="14.24" shape="280.33,834.01 280.46,831.61"/>
    </edge>
    <edge id="-24909639#6" from="1481415231" to="1481415240" priority="3" type="highway.residential">
        <lane id="-24909639#6_0" index="0" disallow="tram rail_urban rail rail_electric rail_fast ship" speed="13.89" length="11.52" shape="279.52,846.99 279.76,843.35"/>
    </edge>
    <edge id="-24909643#0" from="329988598" to="329988600" priority="3" type="highway.residential">
        <lane id="-24909643#0_0" index="0" disallow="tram rail_urban rail rail_electric rail_fast ship" speed="13.89" length="87.38" shape="250.42,637.47 315.12,670.81"/>
    </edge>
    <edge id="-24909643#1" from="329988597" to="329988598" priority="3" type="highway.residential">
        <lane id="-24909643#1_0" index="0" disallow="tram rail_urban rail rail_electric rail_fast ship" speed="13.89" length="61.45" shape="195.74,609.31 237.51,630.82"/>
    </edge>
    <edge id="-24909643#2" from="329988596" to="329988597" priority="3" type="highway.residential">
        <lane id="-24909643#2_0" index="0" disallow="tram rail_urban rail rail_electric rail_fast ship" speed="13.89" length="104.20" shape="103.13,561.61 182.83,602.67"/>
    </edge>
    <edge id="-24909643#3" from="270655078" to="329988596" priority="3" type="highway.residential" shape="43.03,532.46 54.59,538.41 95.97,559.73">
        <lane id="-24909643#3_0" index="0" disallow="tram rail_urban rail rail_electric rail_fast ship" speed="13.89" length="59.55" shape="43.76,531.03 55.32,536.99 90.27,554.99"/>
    </edge>
    <edge id="-24909646#0" from="329988596" to="cluster_270433729_322547912" priority="3" type="highway.residential" shape="95.97,559.73 125.65,503.31">
        <lane id="-24909646#0_0" index="0" disallow="tram rail_urban rail rail_electric rail_fast ship" speed="13.89" length="64.78" shape="97.92,552.59 121.62,507.54"/>
    </edge>
    <edge id="-24909646#1" from="270655187" to="329988596" priority="3" type="highway.residential">
        <lane id="-24909646#1_0" index="0" disallow="tram rail_urban rail rail_electric rail_fast ship" speed="13.89" length="62.76" shape="68.70,608.13 91.19,565.38"/>
    </edge>
    <edge id="-24909650" from="329994560" to="329994561" priority="3" type="highway.residential" shape="124.32,719.17 39.10,711.45 27.30,710.38">
        <lane id="-24909650_0" index="0" disallow="tram rail_urban rail rail_electric rail_fast ship" speed="13.89" length="97.42" shape="117.11,720.12 38.96,713.04 27.16,711.97"/>
    </edge>
    <edge id="-24909653#0" from="329988598" to="329988606" priority="3" type="highway.residential">
        <lane id="-24909653#0_0" index="0" disallow="tram rail_urban rail rail_electric rail_fast ship" speed="13.89" length="62.42" shape="241.19,642.72 218.42,684.85"/>
    </edge>
    <edge id="-24909653#1" from="270655162" to="329988598" priority="3" type="highway.residential">
        <lane id="-24909653#1_0" index="0" disallow="tram rail_urban rail rail_electric rail_fast ship" speed="13.89" length="61.53" shape="271.20,587.13 248.09,629.94"/>
    </edge>
    <edge id="-24909655#0" from="270655187" to="329988599" priority="3" type="highway.residential" shape="66.75,615.27 48.47,605.91 36.65,599.85">
        <lane id="-24909655#0_0" index="0" disallow="tram rail_urban rail rail_electric rail_fast ship" speed="13.89" length="33.82" shape="59.64,613.43 47.74,607.33 35.92,601.27"/>
    </edge>
    <edge id="-24909655#1" from="270655201" to="270655187" priority="3" type="highway.residential">
        <lane id="-24909655#1_0" index="0" disallow="tram rail_urban rail rail_electric rail_fast ship" speed="13.89" length="102.61" shape="150.76,660.11 72.46,620.00"/>
    </edge>
    <edge id="-24909655#2" from="329988606" to="270655201" priority="3" type="highway.residential">
        <lane id="-24909655#2_0" index="0" disallow="tram rail_urban rail rail_electric rail_fast ship" speed="13.89" length="62.34" shape="206.48,688.65 163.86,666.82"/>
    </edge>
    <edge id="-24909655#3" from="270655174" to="329988606" priority="3" type="highway.residential">
        <lane id="-24909655#3_0" index="0" disallow="tram rail_urban rail rail_electric rail_fast ship" speed="13.89" length="86.00" shape="283.11,727.91 219.30,695.22"/>
    </edge>
    <edge id="-24909820#2" from="270657824" to="270657849" priority="3" type="highway.residential" shape="1507.66,117.83 1507.12,124.84 1505.68,138.25 1502.93,166.48">
        <lane id="-24909820#2_0" index="0" disallow="tram rail_urban rail rail_electric rail_fast ship" speed="13.89" length="48.88" shape="1509.01,121.13 1508.72,124.99 1507.27,138.41 1505.06,161.07"/>
    </edge>
    <edge id="-263487946" from="3953925050" to="310539882" priority="3" type="highway.residential">
        <lane id="-263487946_0" index="0" disallow="tram rail_urban rail rail_electric rail_fast ship" speed="13.89" length="34.79" shape="1681.37,137.57 1652.32,134.80"/>
    </edge>
    <edge id="-264891003" from="2705425861" to="2705425844" priority="1" type="highway.service" shape="1297.21,302.99 1297.14,305.47 1289.96,304.19 1289.47,305.98 1297.32,307.49 1296.95,313.86">
        <lane id="-264891003_0" index="0" allow="pedestrian delivery bicycle" speed="5.56" length="26.00" shape="1298.81,303.04 1298.69,307.37 1291.12,306.02 1291.47,304.74 1299.00,306.19 1298.81,309.37"/>
    </edge>
    <edge id="-284527320#0" from="2882564536" to="2882564545" priority="1" type="highway.service">
        <lane id="-284527320#0_0" index="0" allow="pedestrian delivery bicycle" speed="5.56" length="12.24" shape="211.61,115.15 211.39,117.85"/>
    </edge>
    <edge id="-284527320#1" from="2882564530" to="2882564536" priority="1" type="highway.service" shape="187.56,100.64 234.12,105.31 235.51,107.26 235.43,110.86 233.80,112.25 210.39,110.33">